<?xml version='1.0' encoding='UTF-8'?>
<routes xmlns:xsi="http://www.w3.org/2001/XMLSchema-instance" xsi:noNamespaceSchemaLocation="http://sumo.dlr.de/xsd/routes_file.xsd">
    
<vehicle id="0" type="vehicle.chevrolet.impala" depart="0.00">
        <route edges="-46.0.00 -47.0.00 34.0.00 -39.0.00 33.0.00 47.0.00 44.0.00 39.0.00 38.0.00 37.0.00 36.0.00 35.0.00 42.0.00 -23.0.00"/>
    </vehicle>
<vehicle id="1" type="vehicle.micro.microlino" depart="1.00">
        <route edges="34.0.00 -39.0.00 33.0.00 47.0.00 44.0.00 39.0.00 31.0.00 -47.0.00 -48.0.00 -7.0.00 -8.0.00 52.0.00 27.0.00 26.0.00"/>
    </vehicle>
<vehicle id="2" type="vehicle.tesla.model3" depart="2.00">
        <route edges="45.0.00 40.0.00 39.0.00 31.0.00 -47.0.00 -48.0.00 -7.0.00 -8.0.00 -9.0.00 -10.0.00 -11.0.00 3.0.00 2.0.00"/>
    </vehicle>
<vehicle id="3" type="vehicle.mini.cooper_s" depart="3.00">
        <route edges="38.0.00 37.0.00 36.0.00 35.0.00 42.0.00 49.0.00 48.0.00 47.0.00 46.0.00"/>
    </vehicle>
<vehicle id="5" type="vehicle.ford.mustang" depart="5.00">
        <route edges="18.0.00 -10.0.00 -11.0.00 -12.0.00 -13.0.00 -14.0.00 -36.0.00 -37.0.00 -38.0.00 -39.0.00 33.0.00 47.0.00 44.0.00 39.0.00 38.0.00 37.0.00 36.0.00 35.0.00 42.0.00 49.0.00"/>
    </vehicle>
<vehicle id="6" type="vehicle.ford.mustang" depart="6.00">
        <route edges="-5.0.00 -37.0.00 -38.0.00 -39.0.00 33.0.00 47.0.00 44.0.00 39.0.00 31.0.00 -47.0.00 -48.0.00 -7.0.00 -8.0.00 52.0.00 27.0.00 -30.0.00"/>
    </vehicle>
<vehicle id="7" type="vehicle.lincoln.mkz_2017" depart="7.00">
        <route edges="30.0.00 29.0.00 28.0.00 -19.0.00 -5.0.00 -37.0.00 -38.0.00 -39.0.00 33.0.00 47.0.00 44.0.00 39.0.00 38.0.00 37.0.00 36.0.00 35.0.00 42.0.00 -23.0.00"/>
    </vehicle>
<vehicle id="8" type="vehicle.jeep.wrangler_rubicon" depart="8.00">
        <route edges="52.0.00 27.0.00 26.0.00 -2.0.00 -3.0.00 -4.0.00 -5.0.00 -37.0.00 -38.0.00 -39.0.00 33.0.00 47.0.00 44.0.00 39.0.00 31.0.00 -47.0.00"/>
    </vehicle>
<vehicle id="17" type="vehicle.lincoln.mkz_2017" depart="17.00">
        <route edges="-23.0.00 40.0.00 39.0.00 31.0.00 -47.0.00 -48.0.00 -7.0.00 -8.0.00 -9.0.00 -10.0.00 -11.0.00 -12.0.00 -13.0.00"/>
    </vehicle>
<vehicle id="20" type="vehicle.mini.cooper_s" depart="20.00">
        <route edges="42.0.00 49.0.00 48.0.00 47.0.00 44.0.00 39.0.00 31.0.00 -47.0.00 -48.0.00 -7.0.00 -8.0.00 52.0.00 -17.0.00 9.0.00 8.0.00 7.0.00"/>
    </vehicle>
<vehicle id="21" type="vehicle.nissan.patrol" depart="21.00">
        <route edges="48.0.00 47.0.00 44.0.00 39.0.00 38.0.00 37.0.00 36.0.00 35.0.00 42.0.00"/>
    </vehicle>
<vehicle id="26" type="vehicle.dodge.charger_police" depart="26.00">
        <route edges="39.0.00 31.0.00 -47.0.00 -48.0.00 -7.0.00 -8.0.00 52.0.00 27.0.00 29.0.00 10.0.00"/>
    </vehicle>
<vehicle id="28" type="vehicle.toyota.prius" depart="28.00">
        <route edges="47.0.00 44.0.00 39.0.00 31.0.00 -47.0.00 -48.0.00 -7.0.00 -8.0.00 52.0.00 27.0.00 29.0.00 10.0.00"/>
    </vehicle>
<vehicle id="30" type="vehicle.tesla.cybertruck" depart="30.00">
        <route edges="34.0.00 -39.0.00 33.0.00 47.0.00 44.0.00 39.0.00 31.0.00 -47.0.00 -48.0.00 -7.0.00 -8.0.00 -9.0.00 -10.0.00"/>
    </vehicle>
<vehicle id="31" type="vehicle.tesla.cybertruck" depart="31.00">
        <route edges="37.0.00 36.0.00 35.0.00 42.0.00 49.0.00 48.0.00 47.0.00 44.0.00 39.0.00 31.0.00 -47.0.00 -48.0.00"/>
    </vehicle>
<vehicle id="32" type="vehicle.lincoln.mkz_2017" depart="32.00">
        <route edges="39.0.00 31.0.00 -47.0.00 -48.0.00 -7.0.00 51.0.00"/>
    </vehicle>
<vehicle id="33" type="vehicle.citroen.c3" depart="33.00">
        <route edges="-16.0.00 -17.0.00 -18.0.00 -19.0.00 -5.0.00 -37.0.00 -38.0.00 -39.0.00 33.0.00 47.0.00 46.0.00 45.0.00 40.0.00"/>
    </vehicle>
<vehicle id="36" type="vehicle.jeep.wrangler_rubicon" depart="36.00">
        <route edges="39.0.00 31.0.00 -47.0.00 34.0.00 -39.0.00 33.0.00"/>
    </vehicle>
<vehicle id="38" type="vehicle.yamaha.yzf" depart="38.00">
        <route edges="49.0.00 48.0.00 47.0.00 44.0.00 39.0.00 31.0.00 -47.0.00 -48.0.00 -7.0.00 -8.0.00 -9.0.00 -18.0.00 -28.0.00"/>
    </vehicle>
<vehicle id="39" type="vehicle.gazelle.omafiets" depart="39.00">
        <route edges="38.0.00 37.0.00 36.0.00 35.0.00 42.0.00 49.0.00 48.0.00 47.0.00 44.0.00 39.0.00 31.0.00 -47.0.00 -48.0.00 -7.0.00 -8.0.00 -9.0.00"/>
    </vehicle>
<vehicle id="41" type="vehicle.bh.crossbike" depart="41.00">
        <route edges="-39.0.00 33.0.00 47.0.00 44.0.00 39.0.00 31.0.00 -47.0.00 -48.0.00 -7.0.00 -8.0.00 -9.0.00 17.0.00"/>
    </vehicle>
<vehicle id="42" type="vehicle.bh.crossbike" depart="42.00">
        <route edges="-39.0.00 33.0.00 47.0.00 44.0.00 39.0.00 31.0.00 -47.0.00 -48.0.00 -7.0.00 -8.0.00 -9.0.00 -18.0.00 -19.0.00 -5.0.00 -37.0.00 -38.0.00"/>
    </vehicle>
<vehicle id="43" type="vehicle.lincoln.mkz_2017" depart="43.00">
        <route edges="-18.0.00 -19.0.00 -5.0.00 -37.0.00 -38.0.00 -39.0.00 33.0.00 47.0.00 44.0.00 39.0.00 31.0.00 -47.0.00 -48.0.00 -7.0.00"/>
    </vehicle>
<vehicle id="44" type="vehicle.bmw.grandtourer" depart="44.00">
        <route edges="0.0.00 15.0.00 -43.0.00 -36.0.00 -37.0.00 -38.0.00 -39.0.00 33.0.00 47.0.00 46.0.00 45.0.00 40.0.00"/>
    </vehicle>
<vehicle id="48" type="vehicle.citroen.c3" depart="48.00">
        <route edges="46.0.00 45.0.00 40.0.00 39.0.00 31.0.00 -47.0.00 34.0.00 -39.0.00 33.0.00 47.0.00"/>
    </vehicle>
<vehicle id="53" type="vehicle.harley-davidson.low_rider" depart="53.00">
        <route edges="34.0.00 -39.0.00 33.0.00 47.0.00 44.0.00 39.0.00 31.0.00 -47.0.00 -48.0.00 -7.0.00 -8.0.00 52.0.00 27.0.00 26.0.00"/>
    </vehicle>
<vehicle id="56" type="vehicle.mercedes.coupe" depart="56.00">
        <route edges="36.0.00 35.0.00 42.0.00 49.0.00 48.0.00 47.0.00 44.0.00 39.0.00 31.0.00 -47.0.00 -48.0.00 -7.0.00 51.0.00"/>
    </vehicle>
<vehicle id="59" type="vehicle.bmw.grandtourer" depart="59.00">
        <route edges="-15.0.00 -0.0.00 -1.0.00 -2.0.00 -3.0.00 -4.0.00 -5.0.00 -37.0.00 -38.0.00 -39.0.00 33.0.00"/>
    </vehicle>
<vehicle id="60" type="vehicle.lincoln.mkz_2017" depart="60.00">
        <route edges="-36.0.00 -37.0.00 -38.0.00 -39.0.00 33.0.00 47.0.00 44.0.00 39.0.00 31.0.00 -47.0.00 -48.0.00"/>
    </vehicle>
<vehicle id="61" type="vehicle.kawasaki.ninja" depart="61.00">
        <route edges="-12.0.00 -13.0.00 -14.0.00 -36.0.00 -37.0.00 -38.0.00 -39.0.00 33.0.00 47.0.00 44.0.00 39.0.00 31.0.00 -47.0.00 -48.0.00"/>
    </vehicle>
<vehicle id="64" type="vehicle.citroen.c3" depart="64.00">
        <route edges="1.0.00 30.0.00 29.0.00 28.0.00 -19.0.00 -5.0.00 -37.0.00 -38.0.00 -39.0.00 33.0.00 47.0.00 46.0.00"/>
    </vehicle>
<vehicle id="68" type="vehicle.diamondback.century" depart="68.00">
        <route edges="35.0.00 42.0.00 49.0.00 48.0.00 47.0.00 44.0.00"/>
    </vehicle>
<vehicle id="69" type="vehicle.audi.tt" depart="69.00">
        <route edges="14.0.00 13.0.00 12.0.00 -4.0.00 -5.0.00 -37.0.00 -38.0.00 -39.0.00 33.0.00 47.0.00 44.0.00 39.0.00 31.0.00 -47.0.00 -48.0.00 -7.0.00"/>
    </vehicle>
<vehicle id="70" type="vehicle.audi.a2" depart="70.00">
        <route edges="38.0.00 37.0.00 36.0.00 35.0.00 42.0.00 49.0.00 48.0.00 47.0.00 44.0.00 39.0.00 31.0.00 -47.0.00 34.0.00"/>
    </vehicle>
<vehicle id="71" type="vehicle.jeep.wrangler_rubicon" depart="71.00">
        <route edges="37.0.00 36.0.00 35.0.00 42.0.00 49.0.00 48.0.00 47.0.00 44.0.00 39.0.00 31.0.00 -47.0.00 -48.0.00 -7.0.00 -8.0.00 -9.0.00 -10.0.00 28.0.00 18.0.00"/>
    </vehicle>
<vehicle id="73" type="vehicle.bmw.grandtourer" depart="73.00">
        <route edges="-47.0.00 -48.0.00 -7.0.00 -8.0.00 -9.0.00 -10.0.00 -11.0.00 -12.0.00 -13.0.00 -14.0.00"/>
    </vehicle>
<vehicle id="74" type="vehicle.chevrolet.impala" depart="74.00">
        <route edges="-3.0.00 -4.0.00 -5.0.00 -37.0.00 -38.0.00 -39.0.00 33.0.00 47.0.00 46.0.00"/>
    </vehicle>
<vehicle id="77" type="vehicle.citroen.c3" depart="77.00">
        <route edges="48.0.00 47.0.00 44.0.00 39.0.00 31.0.00 -47.0.00 34.0.00 -39.0.00 -40.0.00 -41.0.00"/>
    </vehicle>
<vehicle id="80" type="vehicle.carlamotors.carlacola" depart="80.00">
        <route edges="37.0.00 36.0.00 35.0.00 42.0.00 49.0.00 48.0.00 47.0.00 44.0.00 39.0.00 31.0.00 -47.0.00 -48.0.00 -7.0.00 51.0.00 -0.0.00 30.0.00"/>
    </vehicle>
<vehicle id="81" type="vehicle.audi.etron" depart="81.00">
        <route edges="34.0.00 -39.0.00 33.0.00 47.0.00 44.0.00 39.0.00 31.0.00 -47.0.00 -48.0.00 -7.0.00 -8.0.00 -9.0.00 -18.0.00 -19.0.00"/>
    </vehicle>
<vehicle id="84" type="vehicle.nissan.micra" depart="84.00">
        <route edges="-38.0.00 -39.0.00 33.0.00 47.0.00 44.0.00 39.0.00 31.0.00 -47.0.00 -48.0.00 -7.0.00 -8.0.00 -9.0.00 17.0.00"/>
    </vehicle>
<vehicle id="87" type="vehicle.jeep.wrangler_rubicon" depart="87.00">
        <route edges="36.0.00 35.0.00 42.0.00 49.0.00 48.0.00 47.0.00 44.0.00 39.0.00 31.0.00 -47.0.00 -48.0.00 -7.0.00 -8.0.00 52.0.00 27.0.00 26.0.00 25.0.00"/>
    </vehicle>
<vehicle id="89" type="vehicle.chevrolet.impala" depart="89.00">
        <route edges="-38.0.00 -39.0.00 33.0.00 47.0.00 44.0.00 39.0.00 31.0.00 -47.0.00 -48.0.00"/>
    </vehicle>
<vehicle id="90" type="vehicle.yamaha.yzf" depart="90.00">
        <route edges="39.0.00 31.0.00 -47.0.00 -48.0.00 -7.0.00 -8.0.00 -9.0.00 -10.0.00 -11.0.00 -4.0.00 19.0.00"/>
    </vehicle>
<vehicle id="92" type="vehicle.kawasaki.ninja" depart="92.00">
        <route edges="-41.0.00 -46.0.00 -47.0.00 -48.0.00 -7.0.00 -8.0.00 52.0.00 27.0.00 26.0.00 -2.0.00 -3.0.00"/>
    </vehicle>
<vehicle id="94" type="vehicle.bh.crossbike" depart="94.00">
        <route edges="-5.0.00 -37.0.00 -38.0.00 -39.0.00 33.0.00 47.0.00 44.0.00 39.0.00 31.0.00 -47.0.00 -48.0.00 -7.0.00 -8.0.00 -9.0.00 17.0.00"/>
    </vehicle>
<vehicle id="95" type="vehicle.yamaha.yzf" depart="95.00">
        <route edges="-47.0.00 -48.0.00 -7.0.00 -8.0.00 -9.0.00 -18.0.00 -19.0.00 -5.0.00"/>
    </vehicle>
<vehicle id="99" type="vehicle.audi.etron" depart="99.00">
        <route edges="-41.0.00 -46.0.00 -47.0.00 -48.0.00 -7.0.00 -8.0.00 52.0.00 27.0.00 26.0.00 -2.0.00"/>
    </vehicle>
<vehicle id="102" type="vehicle.harley-davidson.low_rider" depart="102.00">
        <route edges="39.0.00 31.0.00 -47.0.00 34.0.00 -39.0.00 33.0.00 47.0.00 46.0.00 45.0.00"/>
    </vehicle>
<vehicle id="104" type="vehicle.tesla.model3" depart="104.00">
        <route edges="34.0.00 -39.0.00 33.0.00 47.0.00 44.0.00 39.0.00 31.0.00 -47.0.00"/>
    </vehicle>
<vehicle id="106" type="vehicle.bmw.grandtourer" depart="106.00">
        <route edges="-36.0.00 -37.0.00 -38.0.00 -39.0.00 33.0.00 47.0.00 44.0.00 39.0.00 38.0.00 37.0.00 36.0.00 35.0.00"/>
    </vehicle>
<vehicle id="108" type="vehicle.audi.a2" depart="108.00">
        <route edges="-23.0.00 40.0.00 39.0.00 31.0.00 -47.0.00 34.0.00 -39.0.00 33.0.00 47.0.00 44.0.00"/>
    </vehicle>
<vehicle id="112" type="vehicle.diamondback.century" depart="112.00">
        <route edges="33.0.00 47.0.00 44.0.00 39.0.00 31.0.00 -47.0.00 34.0.00 -39.0.00 -40.0.00 -41.0.00 -22.0.00"/>
    </vehicle>
<vehicle id="113" type="vehicle.dodge.charger_police" depart="113.00">
        <route edges="47.0.00 44.0.00 39.0.00 31.0.00 -47.0.00 -48.0.00 -7.0.00 -8.0.00 52.0.00 27.0.00 26.0.00 25.0.00 13.0.00"/>
    </vehicle>
<vehicle id="117" type="vehicle.toyota.prius" depart="117.00">
        <route edges="-52.0.00 -9.0.00 -18.0.00 -19.0.00 -5.0.00 -37.0.00 -38.0.00 -39.0.00 33.0.00 47.0.00 46.0.00 45.0.00"/>
    </vehicle>
<vehicle id="119" type="vehicle.seat.leon" depart="119.00">
        <route edges="7.0.00 -49.0.00 -50.0.00 -43.0.00 -36.0.00 -37.0.00 -38.0.00 -39.0.00 33.0.00 47.0.00 44.0.00 39.0.00 38.0.00 37.0.00"/>
    </vehicle>
<vehicle id="121" type="vehicle.bmw.grandtourer" depart="121.00">
        <route edges="-11.0.00 -12.0.00 -13.0.00 -14.0.00 -36.0.00 -37.0.00 -38.0.00 -39.0.00 33.0.00 47.0.00 44.0.00 39.0.00 38.0.00 37.0.00 36.0.00 35.0.00"/>
    </vehicle>
<vehicle id="122" type="vehicle.tesla.model3" depart="122.00">
        <route edges="-3.0.00 -4.0.00 -5.0.00 -37.0.00 -38.0.00 -39.0.00 33.0.00 47.0.00"/>
    </vehicle>
<vehicle id="126" type="vehicle.nissan.patrol" depart="126.00">
        <route edges="37.0.00 36.0.00 35.0.00 42.0.00 49.0.00 48.0.00 47.0.00 44.0.00 39.0.00 31.0.00 -47.0.00 34.0.00 -39.0.00 -40.0.00"/>
    </vehicle>
<vehicle id="128" type="vehicle.dodge.charger_police" depart="128.00">
        <route edges="27.0.00 26.0.00 -2.0.00 -3.0.00 -4.0.00 -5.0.00 -37.0.00 -38.0.00 -39.0.00 33.0.00 47.0.00 44.0.00 39.0.00 38.0.00 37.0.00 36.0.00 35.0.00"/>
    </vehicle>
<vehicle id="130" type="vehicle.nissan.patrol" depart="130.00">
        <route edges="-12.0.00 -13.0.00 -14.0.00 -36.0.00 -37.0.00 -38.0.00 -39.0.00 33.0.00 47.0.00 44.0.00 39.0.00 38.0.00 37.0.00 36.0.00 35.0.00 42.0.00"/>
    </vehicle>
<vehicle id="134" type="vehicle.diamondback.century" depart="134.00">
        <route edges="46.0.00 45.0.00 40.0.00 39.0.00 31.0.00 -47.0.00 -48.0.00 -7.0.00 -8.0.00 52.0.00 -17.0.00 9.0.00 8.0.00"/>
    </vehicle>
<vehicle id="135" type="vehicle.kawasaki.ninja" depart="135.00">
        <route edges="10.0.00 -18.0.00 -19.0.00 -5.0.00 -37.0.00 -38.0.00 -39.0.00 33.0.00 47.0.00 44.0.00 39.0.00 38.0.00"/>
    </vehicle>
<vehicle id="137" type="vehicle.mini.cooper_s" depart="137.00">
        <route edges="-14.0.00 -36.0.00 -37.0.00 -38.0.00 -39.0.00 33.0.00"/>
    </vehicle>
<vehicle id="139" type="vehicle.chevrolet.impala" depart="139.00">
        <route edges="-41.0.00 -46.0.00 -47.0.00 -48.0.00 -7.0.00 -8.0.00 -9.0.00 -18.0.00 -28.0.00"/>
    </vehicle>
<vehicle id="143" type="vehicle.nissan.patrol" depart="143.00">
        <route edges="-8.0.00 -9.0.00 -18.0.00 -19.0.00 -5.0.00 -37.0.00 -38.0.00 -39.0.00 33.0.00 47.0.00 44.0.00 39.0.00 38.0.00 37.0.00"/>
    </vehicle>
<vehicle id="145" type="vehicle.audi.tt" depart="145.00">
        <route edges="0.0.00 15.0.00 -43.0.00 -36.0.00 -37.0.00 -38.0.00 -39.0.00 33.0.00 47.0.00 44.0.00 39.0.00 31.0.00"/>
    </vehicle>
<vehicle id="149" type="vehicle.nissan.micra" depart="149.00">
        <route edges="46.0.00 45.0.00 40.0.00 39.0.00 31.0.00 -47.0.00 -48.0.00 -7.0.00 -8.0.00 52.0.00 16.0.00 -51.0.00"/>
    </vehicle>
<vehicle id="150" type="vehicle.citroen.c3" depart="150.00">
        <route edges="-10.0.00 -11.0.00 -12.0.00 -13.0.00 -14.0.00 -36.0.00 -37.0.00 -38.0.00 -39.0.00 33.0.00 47.0.00 44.0.00 39.0.00 38.0.00 37.0.00 36.0.00 35.0.00 42.0.00 -23.0.00"/>
    </vehicle>
<vehicle id="151" type="vehicle.lincoln.mkz_2017" depart="151.00">
        <route edges="-37.0.00 -38.0.00 -39.0.00 33.0.00 47.0.00 44.0.00 39.0.00 31.0.00 -47.0.00 -48.0.00 -49.0.00 -50.0.00 -43.0.00"/>
    </vehicle>
<vehicle id="152" type="vehicle.bh.crossbike" depart="152.00">
        <route edges="31.0.00 -47.0.00 -48.0.00 -7.0.00 -8.0.00 -9.0.00 -18.0.00 -19.0.00 -5.0.00 -37.0.00"/>
    </vehicle>
<vehicle id="153" type="vehicle.volkswagen.t2" depart="153.00">
        <route edges="-5.0.00 -37.0.00 -38.0.00 -39.0.00 33.0.00 47.0.00 44.0.00 39.0.00 31.0.00 -47.0.00 -48.0.00 -49.0.00"/>
    </vehicle>
<vehicle id="156" type="vehicle.micro.microlino" depart="156.00">
        <route edges="34.0.00 -39.0.00 33.0.00 47.0.00 44.0.00 39.0.00 31.0.00 -47.0.00"/>
    </vehicle>
<vehicle id="158" type="vehicle.bmw.grandtourer" depart="158.00">
        <route edges="19.0.00 -28.0.00 -11.0.00 -12.0.00 -13.0.00 -14.0.00 -36.0.00 -37.0.00 -38.0.00 -39.0.00 33.0.00"/>
    </vehicle>
<vehicle id="160" type="vehicle.lincoln.mkz_2017" depart="160.00">
        <route edges="-40.0.00 -41.0.00 -46.0.00 -47.0.00 -48.0.00 -7.0.00 -8.0.00 -9.0.00 -10.0.00 -11.0.00"/>
    </vehicle>
<vehicle id="165" type="vehicle.jeep.wrangler_rubicon" depart="165.00">
        <route edges="31.0.00 -47.0.00 -48.0.00 -7.0.00 -8.0.00 -9.0.00 -18.0.00 -19.0.00 -5.0.00"/>
    </vehicle>
<vehicle id="167" type="vehicle.nissan.micra" depart="167.00">
        <route edges="35.0.00 42.0.00 49.0.00 48.0.00 47.0.00 44.0.00 39.0.00 31.0.00 -47.0.00 -48.0.00 -7.0.00 -8.0.00 -9.0.00 -10.0.00 -11.0.00 -12.0.00 -13.0.00 -14.0.00"/>
    </vehicle>
<vehicle id="171" type="vehicle.audi.tt" depart="171.00">
        <route edges="48.0.00 47.0.00 44.0.00 39.0.00 31.0.00 -47.0.00 -48.0.00 -7.0.00 51.0.00 -16.0.00"/>
    </vehicle>
<vehicle id="172" type="vehicle.chevrolet.impala" depart="172.00">
        <route edges="48.0.00 47.0.00 44.0.00 39.0.00 31.0.00 -47.0.00 -48.0.00 -7.0.00 -8.0.00 -9.0.00 17.0.00 -52.0.00"/>
    </vehicle>
<vehicle id="174" type="vehicle.nissan.micra" depart="174.00">
        <route edges="-41.0.00 -46.0.00 -47.0.00 -48.0.00 -7.0.00 -8.0.00 52.0.00 27.0.00 26.0.00 25.0.00 13.0.00 12.0.00"/>
    </vehicle>
<vehicle id="176" type="vehicle.ford.mustang" depart="176.00">
        <route edges="33.0.00 47.0.00 44.0.00 39.0.00 31.0.00 -47.0.00 -48.0.00 -7.0.00"/>
    </vehicle>
<vehicle id="179" type="vehicle.tesla.model3" depart="179.00">
        <route edges="33.0.00 47.0.00 44.0.00 39.0.00 31.0.00 -47.0.00 -48.0.00 -7.0.00 -8.0.00 -9.0.00 -10.0.00 -29.0.00"/>
    </vehicle>
<vehicle id="184" type="vehicle.harley-davidson.low_rider" depart="184.00">
        <route edges="36.0.00 35.0.00 42.0.00 49.0.00 48.0.00 47.0.00 44.0.00 39.0.00 31.0.00 -47.0.00 -48.0.00 -7.0.00 -8.0.00 52.0.00 -17.0.00"/>
    </vehicle>
<vehicle id="188" type="vehicle.audi.etron" depart="188.00">
        <route edges="36.0.00 35.0.00 42.0.00 49.0.00 48.0.00 47.0.00 44.0.00 39.0.00 31.0.00 -47.0.00 -48.0.00 -7.0.00 -8.0.00 -9.0.00 -10.0.00 -11.0.00 3.0.00 2.0.00"/>
    </vehicle>
<vehicle id="190" type="vehicle.chevrolet.impala" depart="190.00">
        <route edges="29.0.00 28.0.00 -19.0.00 -5.0.00 -37.0.00 -38.0.00 -39.0.00 33.0.00 47.0.00 46.0.00 45.0.00 40.0.00"/>
    </vehicle>
<vehicle id="192" type="vehicle.harley-davidson.low_rider" depart="192.00">
        <route edges="-1.0.00 -2.0.00 -3.0.00 -4.0.00 -5.0.00 -37.0.00 -38.0.00 -39.0.00 33.0.00 47.0.00 46.0.00 45.0.00 40.0.00"/>
    </vehicle>
<vehicle id="194" type="vehicle.jeep.wrangler_rubicon" depart="194.00">
        <route edges="3.0.00 2.0.00 25.0.00 -14.0.00 -36.0.00 -37.0.00 -38.0.00 -39.0.00 33.0.00 47.0.00 44.0.00 39.0.00 38.0.00 37.0.00 36.0.00 35.0.00"/>
    </vehicle>
<vehicle id="196" type="vehicle.bmw.grandtourer" depart="196.00">
        <route edges="52.0.00 27.0.00 26.0.00 -2.0.00 -3.0.00 -4.0.00 -5.0.00 -37.0.00 -38.0.00 -39.0.00 33.0.00 47.0.00 44.0.00 39.0.00 38.0.00 37.0.00"/>
    </vehicle>    
    

</routes>
